models/IEEE 13 Bus-G/Transformer.DSS
New "Transformer.sub" phases=3 windings=2 Xhl=0.008 buses=[sourcebus, 650, ] conns=[delta, wye, ] kVs=[115, 4.16, ] kVAs=[5000, 5000, ] taps=[1, 1, ] wdg=1 %R=0.0005 wdg=2 %R=0.0005
New "Transformer.reg1" phases=1 bank=reg1 Xhl=0.01 kVAs=[1666, 1666, ] buses=[650.1, rg60.1, ] kVs=[2.4, 2.4, ] %loadloss=0.01
New "Transformer.reg2" phases=1 bank=reg1 Xhl=0.01 kVAs=[1666, 1666, ] buses=[650.2, rg60.2, ] kVs=[2.4, 2.4, ] %loadloss=0.01
New "Transformer.reg3" phases=1 bank=reg1 Xhl=0.01 kVAs=[1666, 1666, ] buses=[650.3, rg60.3, ] kVs=[2.4, 2.4, ] %loadloss=0.01
New "Transformer.xfm1" phases=3 windings=2 Xhl=2 Xht=1 buses=[633, 634, ] conns=[wye, wye, ] kVs=[4.16, 0.48, ] kVAs=[500, 500, ] taps=[1, 1, ] wdg=1 %R=0.55 wdg=2 %R=0.55 Xlt=1
